McPAT (version 1.0 of Aug, 2013) is computing the target processor...
 

McPAT (version 1.0 of Aug, 2013) results  (current print level is 5)
*****************************************************************************************
  Technology 45 nm
  Using Long Channel Devices When Appropriate
  Interconnect metal projection= aggressive interconnect technology projection
  Core clock Rate(MHz) 2600

*****************************************************************************************
Processor: 
  Area = 134.229 mm^2
  Peak Power = 36.7104 W
  Total Leakage = 22.4131 W
  Peak Dynamic = 14.2973 W
  Subthreshold Leakage = 21.8768 W
  Subthreshold Leakage with power gating = 10.1188 W
  Gate Leakage = 0.536343 W
  Runtime Dynamic = 1.11949 W

  Total Cores: 1 cores 
  Device Type= ITRS high performance device type
    Area = 120.543 mm^2
    Peak Dynamic = 14.2973 W
    Subthreshold Leakage = 20.2661 W
    Subthreshold Leakage with power gating = 9.32572 W
    Gate Leakage = 0.514758 W
    Runtime Dynamic = 1.11949 W

  Total L3s: 
  Device Type= ITRS high performance device type
    Area = 13.5143 mm^2
    Peak Dynamic = 0 W
    Subthreshold Leakage = 1.60516 W
    Subthreshold Leakage with power gating = 0.764741 W
    Gate Leakage = 0.020922 W
    Runtime Dynamic = 2.22275e-10 W

  Total NoCs (Network/Bus): 
  Device Type= ITRS high performance device type
    Area = 0.171559 mm^2
    Peak Dynamic = 0 W
    Subthreshold Leakage = 0.00551643 W
    Subthreshold Leakage with power gating = 0.00314436 W
    Gate Leakage = 0.000663012 W
    Runtime Dynamic = 0 W

*****************************************************************************************
Core:
      Area = 120.543 mm^2
      Peak Dynamic = 14.2973 W
      Subthreshold Leakage = 20.2661 W
      Subthreshold Leakage with power gating = 9.32572 W
      Gate Leakage = 0.514758 W
      Runtime Dynamic = 1.11949 W

      Instruction Fetch Unit:
        Area = 7.58009 mm^2
        Peak Dynamic = 2.6943 W
        Subthreshold Leakage = 1.0523 W
        Subthreshold Leakage with power gating = 0.455104 W
        Gate Leakage = 0.0712539 W
        Runtime Dynamic = 0.07227 W

          Instruction Cache:
            Area = 4.86613 mm^2
            Peak Dynamic = 0.508164 W
            Subthreshold Leakage = 0.486629 W
            Subthreshold Leakage with power gating = 0.22691 W
            Gate Leakage = 0.0421203 W
            Runtime Dynamic = 0.0443183 W

          Branch Target Buffer:
            Area = 0.64954 mm^2
            Peak Dynamic = 0.173855 W
            Subthreshold Leakage = 0.0811682 W
            Subthreshold Leakage with power gating = 0.0435357 W
            Gate Leakage = 0.00272758 W
            Runtime Dynamic = 0.002448 W

          Branch Predictor:
            Area = 0.138516 mm^2
            Peak Dynamic = 0.0584353 W
            Subthreshold Leakage = 0.0199703 W
            Subthreshold Leakage with power gating = 0.0103282 W
            Gate Leakage = 0.000757657 W
            Runtime Dynamic = 0.000847188 W

              Global Predictor:
                Area = 0.0435221 mm^2
                Peak Dynamic = 0.0165022 W
                Subthreshold Leakage = 0.00759719 W
                Subthreshold Leakage with power gating = 0.0039236 W
                Gate Leakage = 0.000278362 W
                Runtime Dynamic = 0.000264991 W

              Local Predictor:
              L1_Local Predictor:
                Area = 0.0257064 mm^2
                Peak Dynamic = 0.0139359 W
                Subthreshold Leakage = 0.00384344 W
                Subthreshold Leakage with power gating = 0.00198631 W
                Gate Leakage = 0.000154548 W
                Runtime Dynamic = 0.000233402 W

              L2_Local Predictor:
                Area = 0.0151917 mm^2
                Peak Dynamic = 0.00515549 W
                Subthreshold Leakage = 0.00181347 W
                Subthreshold Leakage with power gating = 0.000957045 W
                Gate Leakage = 8.00196e-05 W
                Runtime Dynamic = 9.17729e-05 W

              Chooser:
                Area = 0.0435221 mm^2
                Peak Dynamic = 0.0165022 W
                Subthreshold Leakage = 0.00759719 W
                Subthreshold Leakage with power gating = 0.0039236 W
                Gate Leakage = 0.000278362 W
                Runtime Dynamic = 0.000264991 W

              RAS:
                Area = 0.0105732 mm^2
                Peak Dynamic = 0.011495 W
                Subthreshold Leakage = 0.000932505 W
                Subthreshold Leakage with power gating = 0.000494733 W
                Gate Leakage = 4.63858e-05 W
                Runtime Dynamic = 8.38044e-05 W

          Instruction Buffer:
            Area = 0.0226323 mm^2
            Peak Dynamic = 0.593139 W
            Subthreshold Leakage = 0.00151885 W
            Subthreshold Leakage with power gating = 0.000701682 W
            Gate Leakage = 6.83558e-05 W
            Runtime Dynamic = 0.00560828 W

          Instruction Decoder:
            Area = 1.85799 mm^2
            Peak Dynamic = 1.34304 W
            Subthreshold Leakage = 0.442943 W
            Subthreshold Leakage with power gating = 0.166104 W
            Gate Leakage = 0.0222493 W
            Runtime Dynamic = 0.0190482 W

      Renaming Unit:
        Area = 0.380144 mm^2
        Peak Dynamic = 4.49762 W
        Subthreshold Leakage = 0.0712071 W
        Subthreshold Leakage with power gating = 0.0366443 W
        Gate Leakage = 0.00867161 W
        Runtime Dynamic = 0.0130961 W

          Int Front End RAT:
            Area = 0.114751 mm^2
            Peak Dynamic = 0.860254 W
            Subthreshold Leakage = 0.00611897 W
            Subthreshold Leakage with power gating = 0.00348781 W
            Gate Leakage = 0.00038343 W
            Runtime Dynamic = 0.0113694 W

          FP Front End RAT:
            Area = 0.168486 mm^2
            Peak Dynamic = 3.26509 W
            Subthreshold Leakage = 0.0437281 W
            Subthreshold Leakage with power gating = 0.024925 W
            Gate Leakage = 0.00489731 W
            Runtime Dynamic = 0 W

          Free List:
            Area = 0.0516257 mm^2
            Peak Dynamic = 0.0608701 W
            Subthreshold Leakage = 0.00129418 W
            Subthreshold Leakage with power gating = 0.000706742 W
            Gate Leakage = 6.02304e-05 W
            Runtime Dynamic = 0.00172662 W

      Load Store Unit:
        Area = 8.80992 mm^2
        Peak Dynamic = 1.51931 W
        Subthreshold Leakage = 0.591722 W
        Subthreshold Leakage with power gating = 0.283444 W
        Gate Leakage = 0.0351554 W
        Runtime Dynamic = 0.189081 W

          Data Cache:
            Area = 6.84535 mm^2
            Peak Dynamic = 1.47802 W
            Subthreshold Leakage = 0.527675 W
            Subthreshold Leakage with power gating = 0.25085 W
            Gate Leakage = 0.0279261 W
            Runtime Dynamic = 0.137497 W

          LoadQ:
            Area = 0.0836782 mm^2
            Peak Dynamic = 0.00869654 W
            Subthreshold Leakage = 0.00941961 W
            Subthreshold Leakage with power gating = 0.00536918 W
            Gate Leakage = 0.00059896 W
            Runtime Dynamic = 0.00869645 W

          StoreQ:
            Area = 0.322079 mm^2
            Peak Dynamic = 0.0214442 W
            Subthreshold Leakage = 0.0345621 W
            Subthreshold Leakage with power gating = 0.0197004 W
            Gate Leakage = 0.00329971 W
            Runtime Dynamic = 0.0428879 W

      Memory Management Unit:
        Area = 0.394559 mm^2
        Peak Dynamic = 0.185799 W
        Subthreshold Leakage = 0.0675389 W
        Subthreshold Leakage with power gating = 0.0345844 W
        Gate Leakage = 0.00763427 W
        Runtime Dynamic = 0.0065078 W

          Itlb:
            Area = 0.301552 mm^2
            Peak Dynamic = 0.0221802 W
            Subthreshold Leakage = 0.0413758 W
            Subthreshold Leakage with power gating = 0.0235842 W
            Gate Leakage = 0.00393464 W
            Runtime Dynamic = 0.00341843 W

          Dtlb:
            Area = 0.0477259 mm^2
            Peak Dynamic = 0.00234281 W
            Subthreshold Leakage = 0.00609723 W
            Subthreshold Leakage with power gating = 0.00347542 W
            Gate Leakage = 0.000369 W
            Runtime Dynamic = 0.00308937 W

      Execution Unit:
        Area = 8.42427 mm^2
        Peak Dynamic = 5.16566 W
        Subthreshold Leakage = 1.84901 W
        Subthreshold Leakage with power gating = 0.716594 W
        Gate Leakage = 0.123373 W
        Runtime Dynamic = 0.76466 W

          Register Files:
            Area = 0.570804 mm^2
            Peak Dynamic = 0.00570411 W
            Subthreshold Leakage = 0.0101387 W
            Subthreshold Leakage with power gating = 0.00423643 W
            Gate Leakage = 0.000622708 W
            Runtime Dynamic = 0.00662273 W

              Integer RF:
                Area = 0.362673 mm^2
                Peak Dynamic = 0.00570411 W
                Subthreshold Leakage = 0.00614175 W
                Subthreshold Leakage with power gating = 0.00246675 W
                Gate Leakage = 0.00038992 W
                Runtime Dynamic = 0.0058339 W

              Floating Point RF:
                Area = 0.208131 mm^2
                Peak Dynamic = 0 W
                Subthreshold Leakage = 0.00399698 W
                Subthreshold Leakage with power gating = 0.00176968 W
                Gate Leakage = 0.000232788 W
                Runtime Dynamic = 0.000788832 W

          Instruction Scheduler:
            Area = 2.39611 mm^2
            Peak Dynamic = 5.12068 W
            Subthreshold Leakage = 0.122425 W
            Subthreshold Leakage with power gating = 0.0686925 W
            Gate Leakage = 0.00753286 W
            Runtime Dynamic = 0.0907747 W

              Instruction Window:
                Area = 1.00996 mm^2
                Peak Dynamic = 2.03222 W
                Subthreshold Leakage = 0.0800117 W
                Subthreshold Leakage with power gating = 0.0455351 W
                Gate Leakage = 0.00529112 W
                Runtime Dynamic = 0.0376812 W

              FP Instruction Window:
                Area = 0.328073 mm^2
                Peak Dynamic = 1.18249 W
                Subthreshold Leakage = 0.017004 W
                Subthreshold Leakage with power gating = 0.00962066 W
                Gate Leakage = 0.00115349 W
                Runtime Dynamic = 0.0217604 W

              ROB:
                Area = 1.05807 mm^2
                Peak Dynamic = 1.90597 W
                Subthreshold Leakage = 0.0254091 W
                Subthreshold Leakage with power gating = 0.0135368 W
                Gate Leakage = 0.00108824 W
                Runtime Dynamic = 0.0313331 W

          Integer ALUs (Count: 6 ):
            Area = 0.47087 mm^2
            Peak Dynamic = 0.0215303 W
            Subthreshold Leakage = 0.40222 W
            Subthreshold Leakage with power gating = 0.150833 W
            Gate Leakage = 0.0265291 W
            Runtime Dynamic = 0.120084 W

          Floating Point Units (FPUs) (Count: 2 ):
            Area = 4.6585 mm^2
            Peak Dynamic = 0 W
            Subthreshold Leakage = 0.994829 W
            Subthreshold Leakage with power gating = 0.373061 W
            Gate Leakage = 0.0656156 W
            Runtime Dynamic = 0.304033 W

          Complex ALUs (Mul/Div) (Count: 1 ):
            Area = 0.235435 mm^2
            Peak Dynamic = 0 W
            Subthreshold Leakage = 0.20111 W
            Subthreshold Leakage with power gating = 0.0754163 W
            Gate Leakage = 0.0132646 W
            Runtime Dynamic = 0.202689 W

          Results Broadcast Bus:
            Area Overhead = 0.0472749 mm^2
            Peak Dynamic = 0.0148043 W
            Subthreshold Leakage = 0.0982159 W
            Subthreshold Leakage with power gating = 0.0368309 W
            Gate Leakage = 0.00647799 W
            Runtime Dynamic = 0.0404571 W

    L2
    Area = 90.5576 mm^2
    Peak Dynamic = 0.234619 W
    Subthreshold Leakage = 14.7565 W
    Subthreshold Leakage with power gating = 7.09516 W
    Gate Leakage = 0.144813 W
    Runtime Dynamic = 0.0738796 W

*****************************************************************************************
      L3
      Area = 13.5143 mm^2
      Peak Dynamic = 0 W
      Subthreshold Leakage = 1.60516 W
      Subthreshold Leakage with power gating = 0.764741 W
      Gate Leakage = 0.020922 W
      Runtime Dynamic = 2.22275e-10 W

*****************************************************************************************
NOC
      Area = 0.171559 mm^2
      Peak Dynamic = 0 W
      Subthreshold Leakage = 0.00551643 W
      Subthreshold Leakage with power gating = 0.00314436 W
      Gate Leakage = 0.000663012 W
      Runtime Dynamic = 0 W

      Router: 
        Area = 0.171559 mm^2
        Peak Dynamic = 0 W
        Subthreshold Leakage = 0.00551643 W
        Subthreshold Leakage with power gating = 0.00314436 W
        Gate Leakage = 0.000663012 W
        Runtime Dynamic = 0 W

            Virtual Channel Buffer:
              Area = 0.135349 mm^2
              Peak Dynamic = 0 W
              Subthreshold Leakage = 0.00228033 W
              Subthreshold Leakage with power gating = 0.00129979 W
              Gate Leakage = 0.000219375 W
              Runtime Dynamic = 0 W

            Crossbar:
              Area = 0.00849347 mm^2
              Peak Dynamic = 0 W
              Subthreshold Leakage = 0.0032354 W
              Subthreshold Leakage with power gating = 0.00184418 W
              Gate Leakage = 0.000443567 W
              Runtime Dynamic = 0 W

            Arbiter:
              Peak Dynamic = 0 W
              Subthreshold Leakage = 6.93972e-07 W
              Subthreshold Leakage with power gating = 0.00184418 W
              Gate Leakage = 6.9286e-08 W
              Runtime Dynamic = 0 W

*****************************************************************************************
